Circuit: * C:\Users\lisan\Documents\Repositorios\TC\TP03\parte1\Simulaciones\Simulacion_TP3_parte1.asc

WARNING: Node N006 is floating.
WARNING: Node N003 is floating.

Direct Newton iteration for .op point succeeded.
.step run=1
.step run=2
.step run=3
.step run=4
.step run=5
.step run=6
.step run=7
.step run=8
.step run=9
.step run=10

Date: Tue Sep 24 22:29:46 2019
Total elapsed time: 0.535 seconds.

tnom = 27
temp = 27
method = trap
totiter = 4
traniter = 0
tranpoints = 0
accept = 0
rejected = 0
matrix size = 16
fillins = 11
solver = Normal
Matrix Compiler1:      72 opcodes
Matrix Compiler2: 1.71 KB object code size
