Circuit: * C:\Users\grein\Desktop\InformeTC\montecarlo_comun.asc

Early termination of direct N-R iteration.
Direct Newton iteration failed to find .op point.  (Use ".option noopiter" to skip.)
Starting Gmin stepping
Gmin = 10
vernier = 0.5
vernier = 0.25
vernier = 0.125
Gmin = 5.6588
vernier = 0.0625
vernier = 0.03125
vernier = 0.015625
Gmin = 5.48561
vernier = 0.0078125
vernier = 0.00390625
vernier = 0.00195313
vernier = 0.000976563
Gmin = 5.49362
vernier = 0.000488281
Gmin = 0
Gmin stepping failed

Starting source stepping with srcstepmethod=0
Source Step = 3.0303%
Source Step = 33.3333%
Source Step = 63.6364%
Source Step = 93.9394%
Source stepping succeeded in finding the operating point.

.step run=1
.step run=2

Date: Thu Sep 21 01:14:59 2017
Total elapsed time: 2.269 seconds.

tnom = 27
temp = 27
method = trap
totiter = 1627
traniter = 0
tranpoints = 0
accept = 0
rejected = 0
matrix size = 102
fillins = 997
solver = Normal
Matrix Compiler1:    7169 opcodes
Matrix Compiler2: 26.26 KB object code size  8.5/8.5/[3.2]


