Circuit: * C:\Users\ohvic\Documents\ITBA\TP03\Ex4\Simulacion\IA_CM.asc

Error on line 6 : vcm n004 0 v
	 Unknown parameter "v"
Vcm: Missing value, assumed 0V @ DC

Date: Tue Sep 17 01:10:56 2019
Total elapsed time: 0.369 seconds.

tnom = 27
temp = 27
method = trap
totiter = 20018
traniter = 0
tranpoints = 0
accept = 0
rejected = 0
matrix size = 116
fillins = 88
solver = Normal
Thread vector: 3.1/2.5[2] 0.0/0.0[0] 0.3/1.5[1] 0.3/1.3[1]  2592/500
Matrix Compiler1: 7.46 KB object code size  1.5/0.7/[0.5]
Matrix Compiler2: 9.45 KB object code size  0.7/1.1/[0.4]

