Circuit: * TL082 OPERATIONAL AMPLIFIER "MACROMODEL" SUBCIRCUIT

Fatal Error: No analysis request found.
